*Heading
** Job name: Fiber21 Model name: Fiber21
** Generated by: Abaqus/CAE 6.13-1
*Preprint, echo=NO, model=NO, history=NO, contact=NO
**
** PARTS
**
*Part, name=skin_substrate
*Node
      1,           0., 0.00775667001
      2, 0.00999999978, 0.00775667001
      3, 0.00999999978, 0.00808500033
      4,           0., 0.00808500033
      5, 0.00999999978, 0.00741787022
      6,           0., 0.00741787022
      7,           0., -0.00271692988
      8, 0.00999999978, -0.00271692988
      9,  7.90086142e-06, 0.00775667001
     10,  1.61201788e-05, 0.00775667001
     11,  2.46707896e-05, 0.00775667001
     12,  3.35660443e-05, 0.00775667001
     13,  4.28198364e-05, 0.00775667001
     14,  5.24466159e-05, 0.00775667001
     15,  6.24614186e-05, 0.00775667001
     16,  7.28798768e-05, 0.00775667001
     17,  8.37182743e-05, 0.00775667001
     18,  9.49935275e-05, 0.00775667001
     19, 0.000106723244, 0.00775667001
     20, 0.000118925745, 0.00775667001
** ... 14322 like lines cut
*Element, type=CAX4RH
   1,    1,    9,  681,  306
   2,    9,   10,  682,  681
   3,   10,   11,  683,  682
   4,   11,   12,  684,  683
   5,   12,   13,  685,  684
   6,   13,   14,  686,  685
   7,   14,   15,  687,  686
   8,   15,   16,  688,  687
   9,   16,   17,  689,  688
  10,   17,   18,  690,  689
  11,   18,   19,  691,  690
  12,   19,   20,  692,  691
  13,   20,   21,  693,  692
  14,   21,   22,  694,  693
  15,   22,   23,  695,  694
  16,   23,   24,  696,  695
  17,   24,   25,  697,  696
  18,   25,   26,  698,  697
  19,   26,   27,  699,  698
  20,   27,   28,  700,  699
** ... 14080 like lines cut
*Nset, nset=Set-32
    1,    2,    3,    4,    9,   10,   11,   12,   13,   14,   15,   16,   17,   18,   19,   20
   21,   22,   23,   24,   25,   26,   27,   28,   29,   30,   31,   32,   33,   34,   35,   36
   37,   38,   39,   40,   41,   42,   43,   44,   45,   46,   47,   48,   49,   50,   51,   52
   53,   54,   55,   56,   57,   58,   59,   60,   61,   62,   63,   64,   65,   66,   67,   68
   69,   70,   71,   72,   73,   74,   75,   76,   77,   78,   79,   80,   81,   82,   83,   84
   85,   86,   87,   88,   89,   90,   91,   92,   93,   94,   95,   96,   97,   98,   99,  100
  101,  102,  103,  104,  105,  106,  107,  108,  109,  110,  111,  112,  113,  114,  115,  116
  117,  118,  119,  120,  121,  122,  123,  124,  125,  126,  127,  128,  129,  130,  131,  132
  133,  134,  135,  136,  137,  138,  139,  140,  141,  142,  143,  144,  145,  146,  147,  148
  149,  150,  151,  152,  153,  154,  155,  156,  157,  158,  159,  160,  161,  162,  163,  164
  165,  166,  167,  168,  169,  170,  171,  172,  173,  174,  175,  176,  177,  178,  179,  180
  181,  182,  183,  184,  185,  186,  187,  188,  189,  190,  191,  192,  193,  194,  195,  196
  197,  198,  199,  200,  201,  202,  203,  204,  205,  206,  207,  208,  209,  210,  211,  212
  213,  214,  215,  216,  217,  218,  219,  220,  221,  222,  223,  224,  225,  226,  227,  228
  229,  230,  231,  232,  233,  234,  235,  236,  237,  238,  239,  240,  241,  242,  243,  244
  245,  246,  247,  248,  249,  250,  251,  252,  253,  254,  255,  256,  257,  258,  259,  260
  261,  262,  263,  264,  265,  266,  267,  268,  269,  270,  271,  272,  273,  274,  275,  276
  277,  278,  279,  280,  281,  282,  283,  284,  285,  286,  287,  288,  289,  290,  291,  292
  293,  294,  295,  296,  297,  298,  299,  300,  301,  302,  303,  304,  305,  306,  681,  682
  683,  684,  685,  686,  687,  688,  689,  690,  691,  692,  693,  694,  695,  696,  697,  698
** ... 309 like lines cut
*Elset, elset=Set-32, generate
    1,  5100,     1
*Nset, nset=Set-33
     5,     6,     7,     8,   307,   308,   309,   310,   311,   312,   313,   314,   315,   316,   317,   318
   319,   320,   321,   322,   323,   324,   325,   326,   327,   328,   329,   330,   331,   332,   333,   334
   335,   336,   337,   338,   339,   340,   341,   342,   343,   344,   345,   346,   347,   348,   349,   350
   351,   352,   353,   354,   355,   356,   357,   358,   359,   360,   361,   362,   363,   364,   365,   366
   367,   368,   369,   370,   371,   372,   373,   374,   375,   376,   377,   378,   379,   380,   381,   382
   383,   384,   385,   386,   387,   388,   389,   390,   391,   392,   393,   394,   395,   396,   397,   398
   399,   400,   401,   402,   403,   404,   405,   406,   407,   408,   409,   410,   411,   412,   413,   414
   415,   416,   417,   418,   419,   420,   421,   422,   423,   424,   425,   426,   427,   428,   429,   430
   431,   432,   433,   434,   435,   436,   437,   438,   439,   440,   441,   442,   443,   444,   445,   446
   447,   448,   449,   450,   451,   452,   453,   454,   455,   456,   457,   458,   459,   460,   461,   462
   463,   464,   465,   466,   467,   468,   469,   470,   471,   472,   473,   474,   475,   476,   477,   478
   479,   480,   481,   482,   483,   484,   485,   486,   487,   488,   489,   490,   491,   492,   493,   494
   495,   496,   497,   498,   499,   500,   501,   502,   503,   504,   505,   506,   507,   508,   509,   510
   511,   512,   513,   514,   515,   516,   517,   518,   519,   520,   521,   522,   523,   524,   525,   526
   527,   528,   529,   530,   531,   532,   533,   534,   535,   536,   537,   538,   539,   540,   541,   542
   543,   544,   545,   546,   547,   548,   549,   550,   551,   552,   553,   554,   555,   556,   557,   558
   559,   560,   561,   562,   563,   564,   565,   566,   567,   568,   569,   570,   571,   572,   573,   574
   575,   576,   577,   578,   579,   580,   581,   582,   583,   584,   585,   586,   587,   588,   589,   590
   591,   592,   593,   594,   595,   596,   597,   598,   599,   600,   601,   602,   603,   604,   605,   606
   607,   608,   609,   610,   611,   612,   613,   614,   615,   616,   617,   618,   619,   620,   621,   622
** ... 429 like lines cut
*Elset, elset=Set-33, generate
  5101,  12100,      1
*Nset, nset=Set-34
     1,     2,     5,     6,     9,    10,    11,    12,    13,    14,    15,    16,    17,    18,    19,    20
    21,    22,    23,    24,    25,    26,    27,    28,    29,    30,    31,    32,    33,    34,    35,    36
    37,    38,    39,    40,    41,    42,    43,    44,    45,    46,    47,    48,    49,    50,    51,    52
    53,    54,    55,    56,    57,    58,    59,    60,    61,    62,    63,    64,    65,    66,    67,    68
    69,    70,    71,    72,    73,    74,    75,    76,    77,    78,    79,    80,    81,    82,    83,    84
    85,    86,    87,    88,    89,    90,    91,    92,    93,    94,    95,    96,    97,    98,    99,   100
   101,   102,   103,   104,   105,   106,   107,   307,   308,   309,   310,   311,   312,   313,   314,   315
   316,   317,   318,   319,   320,   321,   322,   323,   324,   325,   326,   327,   328,   329,   330,   331
   332,   333,   334,   335,   336,   337,   338,   339,   340,   341,   342,   343,   344,   345,   346,   347
   348,   349,   350,   351,   352,   353,   354,   355,   356,   357,   358,   359,   360,   361,   362,   363
   364,   365,   366,   367,   368,   369,   370,   371,   372,   373,   374,   375,   376,   377,   378,   379
   380,   381,   382,   383,   384,   385,   386,   387,   388,   389,   390,   391,   392,   393,   394,   395
   396,   397,   398,   399,   400,   401,   402,   403,   404,   405,   643,   644,   645,   646,   647,   648
   649,   650,   651,   652,   653,   654,   655,   656,   657,   658,   659,   660,   661,   662,   663,   664
   665,   666,   667,   668,   669,   670,   671,   672,   673,   674,   675,   676,   677,   678,   679,   680
 12462, 12463, 12464, 12465, 12466, 12467, 12468, 12469, 12470, 12471, 12472, 12473, 12474, 12475, 12476, 12477
 12478, 12479, 12480, 12481, 12482, 12483, 12484, 12485, 12486, 12487, 12488, 12489, 12490, 12491, 12492, 12493
 12494, 12495, 12496, 12497, 12498, 12499, 12500, 12501, 12502, 12503, 12504, 12505, 12506, 12507, 12508, 12509
 12510, 12511, 12512, 12513, 12514, 12515, 12516, 12517, 12518, 12519, 12520, 12521, 12522, 12523, 12524, 12525
 12526, 12527, 12528, 12529, 12530, 12531, 12532, 12533, 12534, 12535, 12536, 12537, 12538, 12539, 12540, 12541
** ... 113 like lines cut
*Elset, elset=Set-34, generate
 12101,  14100,      1
*Elset, elset=MCNC_el
 4901, 5001
** Section: skin
*Solid Section, elset=Set-32, material=skin
,
** Section: sylgard
*Solid Section, elset=Set-33, material=sylgard
,
** Section: nylon
*Solid Section, elset=Set-34, material=nylon
,
*End Part
**  
*Part, name=tip
*End Part
**  
**
** ASSEMBLY
**
*Assembly, name=Assembly
**  
*Instance, name=skin_substrate-1, part=skin_substrate
          0.,    -0.008085,           0.
*End Instance
**  
*Instance, name=tip-1, part=tip
*Node
      1,           0., 0.00200000009,           0.
*Nset, nset=tip-1-RefPt_, internal
1, 
*Nset, nset=tip
 1,
*Surface, type=SEGMENTS, name=RigidSurface_, internal
START,           0.,        0.002
 LINE,       0.0005,        0.002
 LINE,       0.0005,        5e-05
 CIRCL,      0.00045,           0.,      0.00045,        5e-05
 LINE,           0.,           0.
*Rigid Body, ref node=tip-1-RefPt_, analytical surface=RigidSurface_
*End Instance
**  
*Nset, nset=Set-5, instance=skin_substrate-1
   7,   8, 475, 476, 477, 478, 479, 480, 481, 482, 483, 484, 485, 486, 487, 488
 489, 490, 491, 492, 493, 494, 495, 496, 497, 498, 499, 500, 501, 502, 503, 504
 505, 506, 507, 508, 509, 510, 511, 512, 513, 514, 515, 516, 517, 518, 519, 520
 521, 522, 523, 524, 525, 526, 527, 528, 529, 530, 531, 532, 533, 534, 535, 536
 537, 538, 539, 540, 541, 542, 543, 544, 545, 546, 547, 548, 549, 550, 551, 552
 553, 554, 555, 556, 557, 558, 559, 560, 561, 562, 563, 564, 565, 566, 567, 568
 569, 570, 571, 572, 573
*Elset, elset=Set-5, instance=skin_substrate-1, generate
 12001,  12100,      1
*Nset, nset=Set-6, instance=tip-1
 1,
*Nset, nset=_PickedSet8, internal, instance=tip-1
 1,
*Nset, nset=_PickedSet11, internal, instance=tip-1
 1,
*Nset, nset=_PickedSet15, internal, instance=skin_substrate-1
   1,   4,   6,   7, 257, 258, 259, 260, 261, 262, 263, 264, 265, 266, 267, 268
 269, 270, 271, 272, 273, 274, 275, 276, 277, 278, 279, 280, 281, 282, 283, 284
 285, 286, 287, 288, 289, 290, 291, 292, 293, 294, 295, 296, 297, 298, 299, 300
 301, 302, 303, 304, 305, 306, 406, 407, 408, 409, 410, 411, 412, 413, 414, 415
 416, 417, 418, 419, 420, 421, 422, 423, 424, 425, 426, 427, 428, 429, 430, 431
 432, 433, 434, 435, 436, 437, 438, 439, 440, 441, 442, 443, 444, 445, 446, 447
 448, 449, 450, 451, 452, 453, 454, 455, 456, 457, 458, 459, 460, 461, 462, 463
 464, 465, 466, 467, 468, 469, 470, 471, 472, 473, 474, 662, 663, 664, 665, 666
 667, 668, 669, 670, 671, 672, 673, 674, 675, 676, 677, 678, 679, 680
*Elset, elset=_PickedSet15, internal, instance=skin_substrate-1
     1,   101,   201,   301,   401,   501,   601,   701,   801,   901,  1001,  1101,  1201,  1301,  1401,  1501
  1601,  1701,  1801,  1901,  2001,  2101,  2201,  2301,  2401,  2501,  2601,  2701,  2801,  2901,  3001,  3101
  3201,  3301,  3401,  3501,  3601,  3701,  3801,  3901,  4001,  4101,  4201,  4301,  4401,  4501,  4601,  4701
  4801,  4901,  5001,  5200,  5300,  5400,  5500,  5600,  5700,  5800,  5900,  6000,  6100,  6200,  6300,  6400
  6500,  6600,  6700,  6800,  6900,  7000,  7100,  7200,  7300,  7400,  7500,  7600,  7700,  7800,  7900,  8000
  8100,  8200,  8300,  8400,  8500,  8600,  8700,  8800,  8900,  9000,  9100,  9200,  9300,  9400,  9500,  9600
  9700,  9800,  9900, 10000, 10100, 10200, 10300, 10400, 10500, 10600, 10700, 10800, 10900, 11000, 11100, 11200
 11300, 11400, 11500, 11600, 11700, 11800, 11900, 12000, 12100, 12101, 12201, 12301, 12401, 12501, 12601, 12701
 12801, 12901, 13001, 13101, 13201, 13301, 13401, 13501, 13601, 13701, 13801, 13901, 14001
*Elset, elset=_s_Surf-3_S3, internal, instance=skin_substrate-1, generate
 5001,  5100,     1
*Surface, type=ELEMENT, name=s_Surf-3
_s_Surf-3_S3, S3
*End Assembly
*Amplitude, name=LiftCurve
             0.,              1., 0.0127355071901998, 0.999224376731302, 0.0254710143803996, 0.992686980609418, 0.0382065215705994, 0.980387811634349
0.0509420287607993, 0.962326869806094, 0.0636775359509991, 0.938504155124654, 0.0764130431411989, 0.908919667590028, 0.0891485503313987, 0.873573407202216
0.101884057521599, 0.832465373961219, 0.114619564711798, 0.785595567867036, 0.127355071901998, 0.732963988919668, 0.140090579092198, 0.674570637119114
0.152826086282398, 0.610415512465374, 0.165561593472598, 0.540498614958449, 0.178297100662797, 0.464819944598338, 0.191032607852997, 0.383379501385042
0.203768115043197, 0.29617728531856, 0.216503622233397, 0.203213296398892, 0.229239129423597, 0.104487534626039, 0.241974636613796,              0.
*Amplitude, name=RampCurve
             0.,              0., 0.0127355071901998, 0.104487534626039, 0.0254710143803996, 0.203213296398892, 0.0382065215705994, 0.29617728531856
0.0509420287607993, 0.383379501385042, 0.0636775359509991, 0.464819944598338, 0.0764130431411989, 0.540498614958449, 0.0891485503313987, 0.610415512465374
0.101884057521599, 0.674570637119114, 0.114619564711798, 0.732963988919668, 0.127355071901998, 0.785595567867036, 0.140090579092198, 0.832465373961219
0.152826086282398, 0.873573407202216, 0.165561593472598, 0.908919667590028, 0.178297100662797, 0.938504155124654, 0.191032607852997, 0.962326869806094
0.203768115043197, 0.980387811634349, 0.216503622233397, 0.992686980609418, 0.229239129423597, 0.999224376731302, 0.241974636613796,              1.
** 
** MATERIALS
** 
*Material, name=nylon
*Hyperelastic, ogden
42368.,          9., 2.36027e-06
*Material, name=skin
*Hyperelastic, ogden, moduli=INSTANTANEOUS
 4623.26,       7.707, 2.16297e-05
*Viscoelastic, time=PRONY
 0.076,    0.,  0.06
  0.45,    0., 0.726
*Material, name=sylgard
*Hyperelastic, neo hooke, moduli=INSTANTANEOUS
105000., 4.7619e-06
*Viscoelastic, time=PRONY
 0.03,  0., 0.7
** 
** INTERACTION PROPERTIES
** 
*Surface Interaction, name=IntProp-1
1.,
*Friction
0.,
*Surface Behavior, pressure-overclosure=HARD
** 
** BOUNDARY CONDITIONS
** 
** Name: axisymmetricEdge Type: Displacement/Rotation
*Boundary
_PickedSet15, 1, 1
** Name: horizontalBottom Type: Displacement/Rotation
*Boundary
Set-5, 2, 2
** Name: verticalTip Type: Displacement/Rotation
*Boundary
_PickedSet8, 1, 1
_PickedSet8, 6, 6
** 
** INTERACTIONS
** 
** Interaction: skinTip
*Contact Pair, interaction=IntProp-1, type=SURFACE TO SURFACE
s_Surf-3, tip-1.RigidSurface_
** ----------------------------------------------------------------
** 
** STEP: ramp
** 
*Step, name=ramp, nlgeom=YES, amplitude=RAMP, inc=10000000, unsymm=YES
*Visco, cetol=0.01
0.0001, 0.241975, 1.035e-08, 0.01
** 
** BOUNDARY CONDITIONS
** 
** Name: movingIndenter Type: Displacement/Rotation
*Boundary, amplitude=RampCurve
_PickedSet11, 2, 2, -6.46485e-05
** 
** INTERACTIONS
** 
** Contact Controls for Interaction: skinTip
*Contact Controls, master=tip-1.RigidSurface_, slave=s_Surf-3, reset
** 
** OUTPUT REQUESTS
** 
*Restart, write, frequency=0
*Print, solve=NO
** 
** FIELD OUTPUT: F-Output-1
** 
*Output, field
*Node Output
CF, RF, U
*Element Output, directions=YES
CE, CEEQ, CEMAG, E, ELEDEN, ELEN, ENER, LE, PE, PEEQ, PEMAG, S
*Contact Output
CDISP, CSTRESS
** 
** HISTORY OUTPUT: H-Output-1
** 
*Output, history, variable=PRESELECT
*End Step
** ----------------------------------------------------------------
** 
** STEP: hold
** 
*Step, name=hold, nlgeom=YES, amplitude=RAMP, inc=10000, unsymm=YES
*Visco, cetol=0.01
0.001, 5., 5e-07, 0.5
** 
** OUTPUT REQUESTS
** 
*Restart, write, frequency=0
** 
** FIELD OUTPUT: F-Output-1
** 
*Output, field
*Node Output
CF, RF, U
*Element Output, directions=YES
CE, CEEQ, CEMAG, E, ELEDEN, ELEN, ENER, LE, PE, PEEQ, PEMAG, S
*Contact Output
CDISP, CSTRESS
** 
** HISTORY OUTPUT: H-Output-1
** 
*Output, history, variable=PRESELECT
*End Step
